/*--------------------------------*- C++ -*----------------------------------*\
  =========                 |
  \\      /  F ield         | OpenFOAM: The Open Source CFD Toolbox
   \\    /   O peration     | Website:  https://openfoam.org
    \\  /    A nd           | Version:  12
     \\/     M anipulation  |
\*---------------------------------------------------------------------------*/
FoamFile
{
    format      ascii;
    class       featureEdgeMesh;
    location    "constant/geometry";
    object      buildings.eMesh;
}
// * * * * * * * * * * * * * * * * * * * * * * * * * * * * * * * * * * * * * //


// points:

14492
(
(36.7863 18.6039 54)
(48.5939 30.4115 54)
(27.7361 27.654 54)
(39.5438 39.4616 54)
(39.5438 39.4616 0)
(27.7361 27.654 0)
(36.7863 18.6039 0)
(48.5939 30.4115 0)
(34.3708 30.3861 58)
(36.7333 32.7486 58)
(39.5967 32.7486 58)
(41.8809 30.4644 58)
(41.8809 27.601 58)
(39.5184 25.2385 58)
(36.655 25.2385 58)
(34.3708 27.5227 58)
(121.029 94.7576 30)
(116.013 117.828 30)
(116.039 117.838 30)
(115.284 95.1754 30)
(115.485 94.9768 30)
(121.298 94.9406 30)
(121.32 94.9586 30)
(122.041 115.997 30)
(122.041 116.025 30)
(115.152 95.3418 30)
(120.098 117.982 30)
(120.211 117.975 30)
(120.183 117.978 30)
(120.253 117.971 30)
(121.674 95.3418 30)
(121.814 95.5711 30)
(120.504 117.928 30)
(121.981 116.473 30)
(120.586 117.907 30)
(121.962 116.541 30)
(115.961 94.6743 30)
(121.927 95.8304 30)
(121.937 95.8572 30)
(114.946 95.7118 30)
(120.734 117.859 30)
(121.981 96.0065 30)
(114.895 95.8438 30)
(122.015 96.1727 30)
(121.029 117.722 30)
(121.781 116.97 30)
(122.038 96.3836 30)
(121.766 116.995 30)
(121.752 117.019 30)
(122.041 96.4684 30)
(121.126 117.663 30)
(121.691 117.114 30)
(114.786 116.053 30)
(114.788 116.082 30)
(121.242 117.582 30)
(121.253 117.574 30)
(114.812 96.1727 30)
(114.8 116.223 30)
(121.309 117.53 30)
(116.672 94.4999 30)
(115.032 116.946 30)
(115.046 116.97 30)
(115.229 117.239 30)
(115.351 117.377 30)
(115.361 117.387 30)
(115.485 117.503 30)
(115.529 117.539 30)
(115.677 117.648 30)
(115.86 117.756 30)
(115.885 117.768 30)
(121.005 94.7438 30)
(121.309 117.53 0)
(120.098 117.982 0)
(120.183 117.978 0)
(120.253 117.971 0)
(122.041 116.025 0)
(122.041 115.997 0)
(120.504 117.928 0)
(121.691 117.114 0)
(120.586 117.907 0)
(121.752 117.019 0)
(121.766 116.995 0)
(120.734 117.859 0)
(121.781 116.97 0)
(120.787 117.838 0)
(121.126 117.663 0)
(121.962 116.541 0)
(121.242 117.582 0)
(121.253 117.574 0)
(115.229 117.239 0)
(114.786 116.053 0)
(114.788 116.082 0)
(115.351 117.377 0)
(115.361 117.387 0)
(114.8 116.223 0)
(114.803 116.251 0)
(115.507 117.521 0)
(115.518 117.53 0)
(115.529 117.539 0)
(114.833 116.418 0)
(115.677 117.648 0)
(115.86 117.756 0)
(115.885 117.768 0)
(116.079 117.854 0)
(115.046 116.97 0)
(115.053 116.983 0)
(115.152 117.138 0)
(114.812 96.1727 0)
(115.485 94.9768 0)
(114.803 96.2286 0)
(115.284 95.1754 0)
(115.238 95.2293 0)
(115.22 95.2513 0)
(115.152 95.3418 0)
(115.053 95.4967 0)
(114.993 95.609 0)
(115.961 94.6743 0)
(114.981 95.6344 0)
(114.946 95.7118 0)
(114.895 95.8438 0)
(122.041 96.4684 0)
(122.015 96.1727 0)
(121.958 95.9246 0)
(121.927 95.8304 0)
(121.029 94.7576 0)
(121.005 94.7438 0)
(121.814 95.5711 0)
(121.674 95.3418 0)
(120.421 94.5331 0)
(120.533 103.233 36)
(116.271 103.233 36)
(116.271 109.998 36)
(120.533 109.998 36)
(112.35 138.233 0)
(112.35 149.554 0)
(112.35 138.233 14)
(112.35 149.554 14)
(88.5745 138.233 0)
(88.5745 143.893 0)
(100.349 149.554 0)
(100.349 149.554 14)
(88.5745 143.893 14)
(88.5745 138.233 14)
(77.7356 26.9059 54)
(88.7271 26.9059 54)
(88.7271 49.576 54)
(77.7356 49.576 54)
(86.02 34.7711 58)
(80.4427 34.7711 58)
(80.4427 41.7108 58)
(86.02 41.7108 58)
(77.7356 26.9059 0)
(88.7271 26.9059 0)
(88.7271 49.576 0)
(77.7356 49.576 0)
(19.0098 102.107 30)
(8.19019 102.107 30)
(8.19019 147.155 30)
(19.0098 147.155 30)
(8.19019 102.107 0)
(8.19019 147.155 0)
(19.0098 102.107 0)
(19.0098 147.155 0)
(9.80747 105.184 34)
(9.80747 118.441 34)
(17.0774 118.441 34)
(17.0774 105.184 34)
(61.699 54.5631 0)
(61.699 73.0942 0)
(75.8112 54.5631 0)
(63.4412 54.5631 61.5408)
(61.6992 54.5631 56.6136)
(61.6998 54.5631 56.6702)
(63.406 54.5631 61.4964)
(75.8112 54.5631 76)
(61.7103 54.5631 56.9815)
(61.7135 54.5631 57.0381)
(61.7303 54.5631 57.264)
(61.7355 54.5631 57.3204)
(62.0098 54.5631 58.765)
(62.0256 54.5631 58.8194)
(62.2556 54.5631 59.4887)
(62.235 54.5631 59.4359)
(63.1365 54.5631 61.1322)
(63.1691 54.5631 61.1786)
(63.4412 73.0942 61.5408)
(63.406 73.0942 61.4964)
(61.9164 73.0942 58.409)
(61.9034 73.0942 58.3538)
(62.3868 73.0942 59.8021)
(61.7062 73.0942 56.8967)
(62.2556 73.0942 59.4887)
(62.235 73.0942 59.4359)
(75.8112 73.0942 76)
(75.8112 73.0942 0)
(49.7071 79.9119 40)
(58.9224 80.2264 40)
(58.936 80.2412 40)
(59.7794 87.0554 40)
(59.7794 92.1761 40)
(59.1813 80.7514 40)
(59.1779 80.7316 40)
(49.7071 99.8706 40)
(58.5013 99.8223 40)
(58.9688 99.5031 40)
(58.956 99.5185 40)
(58.4821 99.8283 40)
(59.191 98.9511 40)
(59.1892 98.9711 40)
(49.7071 79.9119 0)
(49.7071 99.8706 0)
(59.1813 80.7514 0)
(59.1779 80.7316 0)
(58.5676 79.9842 0)
(58.5488 79.9768 0)
(58.936 80.2412 0)
(58.9224 80.2264 0)
(59.7794 87.0554 0)
(59.7794 92.1761 0)
(58.5013 99.8223 0)
(58.956 99.5185 0)
(90.1008 55.6751 9)
(90.1008 78.1875 9)
(116.669 55.6751 9)
(116.669 78.1875 9)
(90.1008 55.6751 0)
(90.1008 78.1875 0)
(116.669 55.6751 0)
(116.669 78.1875 0)
(103.709 61.3826 9.39092)
(103.709 61.3738 9.18251)
(103.709 61.3754 9.23463)
(103.709 74.787 10.3213)
(103.709 74.797 10.2701)
(103.709 69.3118 15.6715)
(103.709 64.601 14.7721)
(103.709 64.5566 14.7447)
(103.709 69.7203 15.587)
(103.709 69.7709 15.5746)
(103.709 74.9131 9.23463)
(103.709 74.9147 9.18251)
(103.709 70.1477 15.4698)
(103.709 70.1975 15.4542)
(103.709 65.3371 15.1638)
(103.709 65.3847 15.1852)
(103.709 72.3496 14.3092)
(103.709 72.3086 14.3414)
(103.709 66.9767 15.6715)
(103.709 67.0281 15.6803)
(96.9366 68.1314 9.0009)
(96.9366 68.16 9.02032)
(96.9366 68.1328 9.01549)
(96.9366 68.144 9.02248)
(96.9366 68.1563 9.01705)
(96.9366 68.1442 9.0012)
(96.9366 68.1442 9.0006)
(32.2379 102.384 14)
(62.4823 102.384 14)
(62.4823 122.737 14)
(34.4255 117.167 14)
(36.0179 117.595 14)
(32.8709 115.76 14)
(32.8927 115.794 14)
(35.739 117.57 14)
(32.2799 114.179 14)
(35.6597 117.559 14)
(33.1035 116.086 14)
(33.3954 116.415 14)
(34.998 117.404 14)
(34.9601 117.391 14)
(38.7053 122.737 14)
(32.4876 114.992 14)
(32.4738 114.954 14)
(34.8281 117.344 14)
(32.5778 115.214 14)
(38.7053 122.737 0)
(32.2799 114.179 0)
(34.4255 117.167 0)
(34.5878 117.245 0)
(34.9601 117.391 0)
(35.0744 117.428 0)
(32.4738 114.954 0)
(35.2478 117.476 0)
(32.4876 114.992 0)
(32.5778 115.214 0)
(35.739 117.57 0)
(36.0179 117.595 0)
(32.8709 115.76 0)
(32.8927 115.794 0)
(33.1035 116.086 0)
(33.3954 116.415 0)
(32.2379 102.384 0)
(62.4823 102.384 0)
(62.4823 122.737 0)
(41.2853 119.312 15)
(41.2853 121.456 15)
(44.734 121.456 15)
(44.734 119.312 15)
(94.0471 96.581 30)
(94.0471 96.581 0)
(84.7242 105.753 0)
(90.2916 83.0095 0)
(90.312 83.0291 0)
(94.0471 90.5335 0)
(84.8797 105.76 0)
(88.918 105.76 0)
(88.9321 105.76 0)
(88.9604 105.76 0)
(88.9745 105.759 0)
(90.9155 103.859 0)
(90.9167 103.831 0)
(83.6264 82.916 0)
(83.6484 82.8982 0)
(90.898 104.042 0)
(83.0434 83.7044 0)
(89.7288 105.588 0)
(83.0328 83.7306 0)
(89.8933 105.506 0)
(82.9584 104.264 0)
(90.2179 105.28 0)
(90.1963 105.298 0)
(82.9036 84.2654 0)
(84.7101 82.4716 0)
(84.7383 82.4692 0)
(83.2692 104.926 0)
(83.5939 105.28 0)
(83.6264 105.307 0)
(83.6484 105.325 0)
(84.0443 105.571 0)
(84.3217 105.676 0)
(84.3899 105.695 0)
(84.4173 105.702 0)
(84.7242 105.753 30)
(90.2916 83.0095 30)
(90.312 83.0291 30)
(94.0471 90.5335 30)
(84.8797 105.76 30)
(88.918 105.76 30)
(88.9604 105.76 30)
(88.9321 105.76 30)
(88.9745 105.759 30)
(90.9155 103.859 30)
(90.9167 103.831 30)
(83.6264 82.916 30)
(83.6484 82.8982 30)
(90.898 104.042 30)
(83.0434 83.7044 30)
(89.7288 105.588 30)
(83.0328 83.7306 30)
(89.8933 105.506 30)
(82.9584 104.264 30)
(90.2179 105.28 30)
(90.1963 105.298 30)
(82.9036 84.2654 30)
(84.7383 82.4692 30)
(84.7101 82.4716 30)
(83.2692 104.926 30)
(83.5939 105.28 30)
(83.6264 105.307 30)
(83.6484 105.325 30)
(84.0443 105.571 30)
(84.3217 105.676 30)
(84.3899 105.695 30)
(84.4173 105.702 30)
(64.6886 123.276 0)
(64.6886 123.276 10)
(79.5616 90.9947 0)
(79.5616 82.7132 0)
(64.6886 82.7132 0)
(63.6989 95.4636 0)
(63.6989 91.7486 0)
(77.8715 123.276 0)
(63.6989 95.4636 10)
(79.5616 82.7132 10)
(79.5616 90.9947 10)
(64.6886 82.7132 10)
(63.6989 91.7486 10)
(77.8715 123.276 10)
(59.5248 134.163 16)
(59.5248 139.818 16)
(59.5248 134.163 0)
(59.5248 139.818 0)
(74.4797 139.818 0)
(74.4797 132.34 0)
(61.5469 132.34 0)
(61.5469 132.34 16)
(74.4797 132.34 16)
(74.4797 139.818 16)
(130.569 128.425 30)
(114.785 128.425 30)
(130.044 136.927 36)
(124.876 133.346 35.6091)
(122.463 130.625 36)
(122.481 130.621 36)
(122.499 130.616 36)
(122.518 130.612 36)
(122.534 130.609 36)
(122.718 130.592 35.9442)
(122.718 130.592 35.9442)
(122.75 130.595 35.9442)
(122.768 130.601 36)
(122.878 130.612 35.8883)
(122.878 130.612 35.8883)
(122.874 130.621 36)
(122.889 130.625 36)
(122.957 130.63 35.8325)
(122.957 130.63 35.8325)
(122.89 130.625 36)
(123.025 130.662 35.8883)
(123.099 130.691 35.8325)
(123.56 131.041 35.8325)
(123.63 131.114 35.8325)
(123.97 131.529 35.7394)
(122.314 130.679 36)
(122.466 130.625 36)
(122.688 130.596 36)
(122.736 130.598 36)
(122.653 130.597 36)
(124.499 132.44 35.6091)
(122.275 130.698 36)
(125.369 134.986 35.6649)
(115.31 136.927 36)
(114.785 128.425 0)
(114.785 156.38 0)
(114.785 156.38 30)
(130.569 128.425 0)
(130.569 156.38 0)
(130.569 156.38 30)
(130.044 147.877 36)
(122.633 154.207 36)
(122.666 154.208 36)
(115.31 147.877 36)
(123.04 154.125 36)
(123.06 154.116 36)
(122.219 154.078 36)
(122.684 154.208 36)
(122.586 154.203 36)
(122.769 154.203 36)
(122.585 154.203 36)
(122.785 154.201 36)
(122.801 154.198 36)
(122.551 154.198 36)
(122.804 154.198 36)
(122.549 154.198 36)
(122.817 154.195 36)
(122.82 154.195 36)
(122.837 154.192 36)
(122.498 154.188 36)
(122.87 154.184 36)
(122.482 154.184 36)
(122.873 154.184 36)
(122.465 154.179 36)
(122.891 154.179 36)
(122.464 154.179 36)
(122.957 154.164 35.9442)
(122.636 154.212 35.9442)
(122.476 154.192 35.8883)
(122.476 154.192 35.8883)
(122.397 154.174 35.8325)
(121.724 153.69 35.8325)
(121.724 153.69 35.8325)
(121.384 153.275 35.7394)
(121.225 153.042 35.6649)
(121.225 153.042 35.6649)
(121.134 152.889 35.6649)
(121.121 152.876 35.6091)
(121.653 153.611 35.8325)
(120.727 152.083 35.6091)
(120.727 152.083 35.6091)
(119.985 149.818 35.6649)
(120.602 151.782 35.6091)
(120.602 151.782 35.6091)
(89.7595 118.581 0)
(89.7595 118.581 38)
(89.7595 132.778 0)
(89.7595 132.778 38)
(106.999 118.581 0)
(100.717 118.581 0)
(106.999 132.778 0)
(96.4244 118.581 0)
(96.4244 118.581 38)
(100.717 118.581 38)
(106.999 118.581 38)
(106.999 132.778 38)
(154.39 88.7005 9)
(175.916 88.7005 15)
(154.39 114.29 15)
(154.39 114.29 0)
(154.39 97.6797 40)
(154.39 111.474 40)
(154.39 97.6797 0)
(154.39 88.7005 0)
(197.443 88.7005 0)
(197.443 88.7005 9)
(197.443 114.29 15)
(197.443 114.29 0)
(153.149 93.1191 0)
(153.056 92.9644 0)
(149.977 89.9361 0)
(154.029 95.1572 0)
(151.922 91.4882 0)
(154.39 97.6496 0)
(154.39 97.5895 0)
(145.39 88.6797 0)
(145.45 88.6799 0)
(144.39 88.6797 0)
(144.39 111.474 0)
(153.354 93.487 0)
(151.382 90.9646 0)
(147.506 88.9319 0)
(149.503 89.6744 0)
(153.409 93.5938 0)
(154.166 95.6812 0)
(154.191 95.7987 0)
(154.179 95.7399 0)
(152.359 91.9847 0)
(152.321 91.9383 0)
(154.21 95.887 0)
(152.582 92.2687 0)
(146.828 88.7953 0)
(152.618 92.3169 0)
(152.636 92.3411 0)
(153.722 94.2773 0)
(152.671 92.3896 0)
(148.765 89.3363 0)
(153.745 94.3331 0)
(153.767 94.389 0)
(152.81 92.5862 0)
(150.459 90.2428 0)
(153.872 94.6707 0)
(146.111 88.7086 0)
(154.368 97.0486 0)
(154.372 97.1086 0)
(153.977 94.9845 0)
(144.39 111.474 40)
(147.153 88.8541 40)
(151.668 91.2312 40)
(154.279 96.2718 40)
(152.045 91.6204 40)
(152.085 91.665 40)
(146.679 88.7725 40)
(146.739 88.7813 40)
(151.337 90.9247 40)
(146.59 88.76 40)
(146.53 88.7522 40)
(151.155 90.7682 40)
(152.302 91.9151 40)
(152.34 91.9615 40)
(146.111 88.7086 40)
(154.372 97.1086 40)
(152.582 92.2687 40)
(150.825 90.5061 40)
(150.777 90.4699 40)
(152.618 92.3169 40)
(153.892 94.7275 40)
(152.671 92.3896 40)
(154.38 97.2588 40)
(153.921 94.8129 40)
(152.707 92.4384 40)
(148.171 89.1202 40)
(152.793 92.5614 40)
(152.827 92.611 40)
(150.459 90.2428 40)
(154.387 97.4391 40)
(154.388 97.4992 40)
(154.39 97.6196 40)
(145.45 88.6799 40)
(145.39 88.6797 40)
(144.39 88.6797 40)
(150.208 90.0775 40)
(154.131 95.5349 40)
(153.34 93.4604 40)
(177.404 146.66 42)
(177.404 158.66 42)
(177.404 146.66 0)
(177.404 158.66 0)
(183.105 146.66 0)
(187.439 146.66 0)
(193.14 146.66 0)
(183.105 158.66 0)
(187.439 158.66 0)
(193.14 158.66 0)
(183.105 146.66 42)
(193.14 146.66 42)
(187.439 146.66 42)
(183.105 158.66 42)
(193.14 158.66 42)
(187.439 158.66 42)
(165.944 80.1383 0)
(165.944 80.1383 8)
(182.326 80.1383 0)
(182.326 80.1383 8)
(182.326 66.5518 0)
(156.204 66.5518 0)
(156.204 73.3451 0)
(156.204 66.5518 8)
(182.326 66.5518 8)
(156.204 73.3451 8)
(183.888 76.0165 38)
(183.888 80.1383 38)
(183.888 76.0165 0)
(183.888 80.1383 0)
(194.021 63.3075 0)
(183.888 63.3075 0)
(183.888 67.2576 0)
(194.021 80.1383 0)
(183.888 63.3075 38)
(194.021 63.3075 38)
(183.888 67.2576 38)
(194.021 80.1383 38)
(143.733 74.8988 20)
(143.733 74.8988 0)
(150.901 59.5796 0)
(144.813 59.5796 0)
(150.901 74.8988 0)
(140.492 62.1328 0)
(140.492 73.4258 0)
(140.492 73.4258 20)
(144.813 59.5796 20)
(150.901 59.5796 20)
(150.901 74.8988 20)
(140.492 62.1328 20)
(157.14 132.361 42)
(157.14 126.66 42)
(169.14 126.66 42)
(157.14 142.396 42)
(157.14 136.695 42)
(169.14 132.361 42)
(169.14 142.396 42)
(169.14 136.695 42)
(157.14 136.695 0)
(157.14 142.396 0)
(157.14 132.361 0)
(157.14 126.66 0)
(169.14 126.66 0)
(169.14 132.361 0)
(169.14 136.695 0)
(169.14 142.396 0)
(165.83 131.619 48)
(161.376 131.619 48)
(161.376 137.188 48)
(165.83 137.188 48)
(171.246 139.593 0)
(171.246 139.593 10)
(187.603 139.593 10)
(187.603 139.593 0)
(193.396 120.851 0)
(171.246 120.851 0)
(193.396 136.526 0)
(171.246 120.851 10)
(193.396 120.851 10)
(193.396 136.526 10)
(197.53 97.6797 0)
(197.53 97.6797 40)
(197.53 111.474 0)
(197.53 111.474 40)
(200.145 91.3371 0)
(200.187 91.2945 0)
(197.671 96.0938 0)
(198.404 93.8096 0)
(200.426 91.0657 0)
(202.796 89.4908 0)
(200.628 90.8851 0)
(197.581 96.719 0)
(200.835 90.7107 0)
(205.809 88.7086 0)
(198.11 94.5013 0)
(205.869 88.704 0)
(201.143 90.4699 0)
(201.191 90.4341 0)
(206.139 88.6882 0)
(201.313 90.3459 0)
(206.199 88.6858 0)
(203.806 89.1018 0)
(197.925 95.042 0)
(197.53 97.6196 0)
(197.53 97.5895 0)
(207.53 88.6797 0)
(207.53 111.474 0)
(198.711 93.2232 0)
(200.835 90.7107 40)
(197.671 96.0938 40)
(205.989 88.696 40)
(205.929 88.6998 40)
(205.869 88.704 40)
(200.426 91.0657 40)
(205.809 88.7086 40)
(197.581 96.719 40)
(205.39 88.7522 40)
(205.33 88.76 40)
(197.53 97.5895 40)
(197.53 97.6196 40)
(203.806 89.1018 40)
(202.796 89.4908 40)
(198.131 94.445 40)
(198.11 94.5013 40)
(198.048 94.6707 40)
(197.925 95.042 40)
(201.313 90.3459 40)
(207.53 88.6797 40)
(207.53 111.474 40)
(219.634 149.678 44)
(219.634 91.2772 44)
(227.68 93.461 50)
(227.68 147.494 50)
(219.634 149.678 0)
(237.283 149.678 0)
(237.283 149.678 44)
(219.634 91.2772 0)
(237.283 91.2772 0)
(237.283 91.2772 44)
(229.237 93.461 50)
(229.237 147.494 50)
(205.362 52.7259 36)
(223.684 52.7259 36)
(205.362 77.0552 36)
(223.684 77.0552 36)
(205.362 52.7259 0)
(205.362 77.0552 0)
(223.684 52.7259 0)
(223.684 77.0552 0)
(219.104 58.8906 42)
(209.943 58.8906 42)
(209.943 70.8906 42)
(219.104 70.8906 42)
(28.7004 53.9767 0)
(28.7004 70.609 0)
(38.1716 53.9767 44)
(38.1716 53.9767 0)
(38.1716 70.609 44)
(38.1716 70.609 0)
(202.244 121.702 0)
(202.244 121.702 12)
(202.244 157.526 0)
(202.244 157.526 12)
(213.278 157.526 0)
(213.278 121.702 0)
(213.278 121.702 12)
(213.278 157.526 12)
(38.0867 26.6702 54)
(40.4492 29.0327 54)
(35.8025 28.9544 54)
(38.165 31.3169 54)
(96.9367 68.1665 9.02311)
(119.175 136.402 30)
(126.179 136.402 30)
(123.151 130.725 35.8883)
(123.97 131.53 35.7394)
(126.179 148.402 30)
(119.175 148.402 30)
(122.203 154.079 35.8883)
(121.384 153.274 35.7394)
(41.8809 27.601 54)
(39.5184 25.2385 54)
(36.655 25.2385 54)
(41.8809 30.4644 54)
(34.3708 27.5227 54)
(34.3708 30.3861 54)
(39.5967 32.7486 54)
(36.7333 32.7486 54)
(35.8025 28.9544 58)
(38.165 31.3169 58)
(40.4492 29.0327 58)
(38.0867 26.6702 58)
(116.079 117.854 30)
(116.105 117.864 30)
(115.341 95.1128 30)
(115.361 95.0925 30)
(116.146 117.878 30)
(115.411 95.043 30)
(116.186 117.891 30)
(115.322 95.1334 30)
(121.161 94.8397 30)
(116.199 117.895 30)
(121.185 94.8557 30)
(115.312 95.1438 30)
(116.24 117.907 30)
(116.213 117.899 30)
(115.432 95.0238 30)
(116.254 117.911 30)
(116.295 117.922 30)
(121.231 94.8887 30)
(121.208 94.8721 30)
(115.453 95.0048 30)
(116.336 117.932 30)
(115.303 95.1542 30)
(116.364 117.938 30)
(121.265 94.9143 30)
(116.378 117.941 30)
(116.405 117.946 30)
(116.419 117.949 30)
(115.464 94.9954 30)
(116.461 117.956 30)
(116.489 117.961 30)
(116.517 117.965 30)
(116.559 117.97 30)
(116.531 117.966 30)
(115.22 95.2513 30)
(115.238 95.2293 30)
(116.587 117.973 30)
(120.211 94.5039 30)
(115.211 95.2624 30)
(116.658 117.979 30)
(121.405 95.0334 30)
(121.384 95.0142 30)
(116.7 117.981 30)
(121.425 95.0528 30)
(121.436 95.0626 30)
(116.714 117.981 30)
(115.584 94.8972 30)
(116.757 117.982 30)
(116.771 117.983 30)
(115.177 95.3074 30)
(115.194 95.2848 30)
(115.203 95.2736 30)
(121.476 95.1027 30)
(120.533 109.998 30)
(115.607 94.8803 30)
(121.505 95.1334 30)
(121.485 95.1128 30)
(115.619 94.8721 30)
(120.056 117.983 30)
(115.169 95.3189 30)
(120.07 117.982 30)
(121.514 95.1438 30)
(115.63 94.8638 30)
(120.112 117.981 30)
(121.552 95.186 30)
(120.126 117.981 30)
(122.04 116.068 30)
(122.041 116.039 30)
(115.653 94.8477 30)
(121.571 95.2075 30)
(122.038 116.096 30)
(115.112 95.4003 30)
(122.037 116.124 30)
(115.689 94.824 30)
(122.034 116.152 30)
(115.097 95.4241 30)
(122.032 116.18 30)
(115.701 94.8163 30)
(121.65 95.3074 30)
(121.658 95.3189 30)
(115.736 94.7937 30)
(122.029 116.209 30)
(121.699 95.3768 30)
(121.714 95.4003 30)
(120.296 117.966 30)
(122.025 116.237 30)
(115.761 94.779 30)
(120.31 117.965 30)
(121.73 95.4241 30)
(122.022 116.265 30)
(120.338 117.961 30)
(121.759 95.4723 30)
(121.737 95.4361 30)
(121.745 95.4481 30)
(122.02 116.279 30)
(115.797 94.7576 30)
(115.773 94.7718 30)
(121.774 95.4967 30)
(115.039 95.5213 30)
(115.053 95.4967 30)
(122.013 116.321 30)
(115.822 94.7438 30)
(115.847 94.7304 30)
(121.827 95.5963 30)
(121.834 95.609 30)
(115.872 94.7173 30)
(121.99 116.432 30)
(114.993 95.609 30)
(120.532 117.922 30)
(121.987 116.445 30)
(121.881 95.7118 30)
(121.87 95.6858 30)
(114.981 95.6344 30)
(121.977 116.487 30)
(115.923 94.6922 30)
(121.892 95.7379 30)
(120.559 117.914 30)
(121.903 95.7641 30)
(121.973 116.5 30)
(114.974 95.6472 30)
(115.936 94.6861 30)
(114.957 95.6858 30)
(121.945 95.8841 30)
(121.95 95.8976 30)
(120.681 117.878 30)
(121.958 95.9246 30)
(114.935 95.7379 30)
(114.929 95.751 30)
(121.97 95.9654 30)
(120.708 117.868 30)
(116.053 94.6357 30)
(121.973 95.9791 30)
(121.987 96.034 30)
(116.079 94.6255 30)
(120.787 117.838 30)
(121.994 96.0615 30)
(120.813 117.828 30)
(122 96.0892 30)
(121.881 116.768 30)
(120.839 117.817 30)
(121.87 116.794 30)
(122.008 96.1309 30)
(122.01 96.1448 30)
(114.886 95.8706 30)
(114.881 95.8841 30)
(121.834 116.87 30)
(116.172 94.5929 30)
(122.023 96.2286 30)
(121.821 116.896 30)
(122.027 96.2567 30)
(116.199 94.5844 30)
(121.808 116.921 30)
(114.865 95.9382 30)
(116.227 94.5763 30)
(121.005 117.736 30)
(120.967 117.756 30)
(121.794 116.946 30)
(116.24 94.5724 30)
(114.857 95.9654 30)
(122.04 96.4118 30)
(116.267 94.5649 30)
(121.066 117.7 30)
(122.04 96.426 30)
(114.846 96.0065 30)
(121.09 117.686 30)
(116.295 94.5577 30)
(122.041 96.4826 30)
(122.042 96.4967 30)
(114.839 96.034 30)
(120.533 103.233 30)
(116.322 94.551 30)
(121.102 117.678 30)
(116.271 103.233 30)
(121.73 117.055 30)
(116.271 109.998 30)
(121.699 117.103 30)
(114.786 116.025 30)
(114.785 116.011 30)
(121.196 117.616 30)
(114.789 116.11 30)
(121.666 117.149 30)
(121.683 117.126 30)
(114.791 116.138 30)
(121.65 117.172 30)
(121.208 117.607 30)
(114.795 116.18 30)
(114.792 116.152 30)
(121.633 117.195 30)
(114.819 96.1309 30)
(114.796 116.195 30)
(121.276 117.556 30)
(114.821 96.1169 30)
(121.615 117.217 30)
(121.287 117.548 30)
(114.803 116.251 30)
(114.809 116.293 30)
(114.807 96.2006 30)
(121.589 117.25 30)
(121.606 117.228 30)
(121.571 117.272 30)
(114.812 116.307 30)
(114.803 96.2286 30)
(121.342 117.503 30)
(114.819 116.348 30)
(114.821 116.362 30)
(121.543 117.304 30)
(121.352 117.493 30)
(121.373 117.475 30)
(114.827 116.39 30)
(114.798 96.2708 30)
(114.801 96.2427 30)
(121.394 117.456 30)
(114.833 116.418 30)
(121.514 117.336 30)
(121.534 117.315 30)
(121.505 117.346 30)
(114.839 116.445 30)
(121.485 117.367 30)
(114.846 116.473 30)
(114.853 116.5 30)
(114.792 96.3271 30)
(114.796 96.2848 30)
(116.615 94.5039 30)
(116.644 94.5017 30)
(114.877 116.582 30)
(114.869 116.555 30)
(114.89 116.622 30)
(114.881 116.595 30)
(114.899 116.649 30)
(114.787 96.4118 30)
(114.788 96.3836 30)
(114.909 116.676 30)
(114.786 96.4401 30)
(114.785 96.4684 30)
(114.974 116.832 30)
(114.963 116.806 30)
(114.987 116.858 30)
(114.957 116.794 30)
(115.012 116.908 30)
(114.999 116.883 30)
(115.067 117.007 30)
(115.053 116.983 30)
(115.082 117.031 30)
(120.239 94.5065 30)
(115.097 117.055 30)
(115.112 117.079 30)
(115.128 117.103 30)
(115.152 117.138 30)
(115.169 117.16 30)
(115.177 117.172 30)
(120.393 94.5279 30)
(115.211 117.217 30)
(115.194 117.195 30)
(120.421 94.5331 30)
(115.247 117.261 30)
(115.256 117.272 30)
(115.274 117.293 30)
(115.293 117.315 30)
(115.312 117.336 30)
(120.573 94.5686 30)
(115.381 117.407 30)
(115.401 117.427 30)
(120.614 94.5803 30)
(120.586 94.5724 30)
(115.422 117.446 30)
(120.641 94.5886 30)
(115.443 117.465 30)
(115.453 117.475 30)
(115.474 117.493 30)
(120.681 94.6017 30)
(120.654 94.5929 30)
(115.507 117.521 30)
(115.518 117.53 30)
(120.708 94.611 30)
(120.721 94.6157 30)
(115.551 117.556 30)
(115.562 117.565 30)
(120.748 94.6255 30)
(115.596 117.591 30)
(115.573 117.574 30)
(120.774 94.6357 30)
(115.653 117.632 30)
(115.63 117.616 30)
(115.689 117.655 30)
(115.712 117.671 30)
(115.736 117.686 30)
(115.749 117.693 30)
(115.797 117.722 30)
(115.761 117.7 30)
(115.822 117.736 30)
(120.98 94.7304 30)
(120.955 94.7173 30)
(115.923 117.787 30)
(115.948 117.799 30)
(121.287 117.548 0)
(121.276 117.556 0)
(122.013 116.321 0)
(120.056 117.983 0)
(122.02 116.279 0)
(120.07 117.982 0)
(122.022 116.265 0)
(121.342 117.503 0)
(121.352 117.493 0)
(122.025 116.237 0)
(120.112 117.981 0)
(120.126 117.981 0)
(122.029 116.209 0)
(121.373 117.475 0)
(122.032 116.18 0)
(121.394 117.456 0)
(122.034 116.152 0)
(122.037 116.124 0)
(120.211 117.975 0)
(122.038 116.096 0)
(122.04 116.068 0)
(121.485 117.367 0)
(122.041 116.039 0)
(120.296 117.966 0)
(121.505 117.346 0)
(120.31 117.965 0)
(121.514 117.336 0)
(120.338 117.961 0)
(121.534 117.315 0)
(121.543 117.304 0)
(121.571 117.272 0)
(121.589 117.25 0)
(121.606 117.228 0)
(121.615 117.217 0)
(121.633 117.195 0)
(121.65 117.172 0)
(120.532 117.922 0)
(121.666 117.149 0)
(120.559 117.914 0)
(121.683 117.126 0)
(121.699 117.103 0)
(121.73 117.055 0)
(120.681 117.878 0)
(120.708 117.868 0)
(121.794 116.946 0)
(121.808 116.921 0)
(120.813 117.828 0)
(121.821 116.896 0)
(120.839 117.817 0)
(121.834 116.87 0)
(121.87 116.794 0)
(121.881 116.768 0)
(120.967 117.756 0)
(121.005 117.736 0)
(121.029 117.722 0)
(121.066 117.7 0)
(121.09 117.686 0)
(121.102 117.678 0)
(121.973 116.5 0)
(121.977 116.487 0)
(121.981 116.473 0)
(121.196 117.616 0)
(121.987 116.445 0)
(121.208 117.607 0)
(121.99 116.432 0)
(116.419 117.949 0)
(116.461 117.956 0)
(115.247 117.261 0)
(114.785 116.011 0)
(116.489 117.961 0)
(115.256 117.272 0)
(114.786 116.025 0)
(116.517 117.965 0)
(115.274 117.293 0)
(116.531 117.966 0)
(115.293 117.315 0)
(116.559 117.97 0)
(115.312 117.336 0)
(116.587 117.973 0)
(114.789 116.11 0)
(114.791 116.138 0)
(114.792 116.152 0)
(116.658 117.979 0)
(114.795 116.18 0)
(115.381 117.407 0)
(114.796 116.195 0)
(116.7 117.981 0)
(116.714 117.981 0)
(115.401 117.427 0)
(115.422 117.446 0)
(116.757 117.982 0)
(115.443 117.465 0)
(116.771 117.983 0)
(115.453 117.475 0)
(114.809 116.293 0)
(114.812 116.307 0)
(115.474 117.493 0)
(115.485 117.503 0)
(114.819 116.348 0)
(114.821 116.362 0)
(114.827 116.39 0)
(115.551 117.556 0)
(115.562 117.565 0)
(115.573 117.574 0)
(114.839 116.445 0)
(115.596 117.591 0)
(114.846 116.473 0)
(114.853 116.5 0)
(115.63 117.616 0)
(115.653 117.632 0)
(114.869 116.555 0)
(115.689 117.655 0)
(114.877 116.582 0)
(115.712 117.671 0)
(114.881 116.595 0)
(115.736 117.686 0)
(114.89 116.622 0)
(115.749 117.693 0)
(115.761 117.7 0)
(114.899 116.649 0)
(114.909 116.676 0)
(115.797 117.722 0)
(115.822 117.736 0)
(114.957 116.794 0)
(114.963 116.806 0)
(115.923 117.787 0)
(114.974 116.832 0)
(115.948 117.799 0)
(114.987 116.858 0)
(114.999 116.883 0)
(116.013 117.828 0)
(115.012 116.908 0)
(116.039 117.838 0)
(115.032 116.946 0)
(116.105 117.864 0)
(115.067 117.007 0)
(116.146 117.878 0)
(115.082 117.031 0)
(116.186 117.891 0)
(115.097 117.055 0)
(116.199 117.895 0)
(116.213 117.899 0)
(115.112 117.079 0)
(116.24 117.907 0)
(116.254 117.911 0)
(115.128 117.103 0)
(116.295 117.922 0)
(116.336 117.932 0)
(115.169 117.16 0)
(115.177 117.172 0)
(116.364 117.938 0)
(116.378 117.941 0)
(115.194 117.195 0)
(116.405 117.946 0)
(115.211 117.217 0)
(114.819 96.1309 0)
(114.807 96.2006 0)
(114.801 96.2427 0)
(115.464 94.9954 0)
(115.453 95.0048 0)
(114.798 96.2708 0)
(114.796 96.2848 0)
(116.672 94.4999 0)
(115.432 95.0238 0)
(116.644 94.5017 0)
(115.411 95.043 0)
(114.792 96.3271 0)
(116.615 94.5039 0)
(114.788 96.3836 0)
(115.361 95.0925 0)
(114.787 96.4118 0)
(115.341 95.1128 0)
(114.786 96.4401 0)
(115.322 95.1334 0)
(115.312 95.1438 0)
(114.785 96.4684 0)
(115.303 95.1542 0)
(115.211 95.2624 0)
(115.203 95.2736 0)
(115.194 95.2848 0)
(116.322 94.551 0)
(115.177 95.3074 0)
(115.169 95.3189 0)
(116.295 94.5577 0)
(116.267 94.5649 0)
(116.24 94.5724 0)
(116.227 94.5763 0)
(116.199 94.5844 0)
(115.112 95.4003 0)
(115.097 95.4241 0)
(116.172 94.5929 0)
(116.079 94.6255 0)
(115.039 95.5213 0)
(116.053 94.6357 0)
(114.974 95.6472 0)
(115.936 94.6861 0)
(115.923 94.6922 0)
(114.957 95.6858 0)
(115.872 94.7173 0)
(114.935 95.7379 0)
(114.929 95.751 0)
(115.847 94.7304 0)
(115.822 94.7438 0)
(115.797 94.7576 0)
(115.773 94.7718 0)
(115.761 94.779 0)
(114.886 95.8706 0)
(115.736 94.7937 0)
(114.881 95.8841 0)
(115.701 94.8163 0)
(114.865 95.9382 0)
(115.689 94.824 0)
(114.857 95.9654 0)
(115.653 94.8477 0)
(114.846 96.0065 0)
(115.63 94.8638 0)
(115.619 94.8721 0)
(114.839 96.034 0)
(115.607 94.8803 0)
(115.584 94.8972 0)
(114.821 96.1169 0)
(120.393 94.5279 0)
(122.042 96.4967 0)
(122.041 96.4826 0)
(121.571 95.2075 0)
(121.552 95.186 0)
(122.04 96.426 0)
(122.04 96.4118 0)
(122.038 96.3836 0)
(121.514 95.1438 0)
(120.239 94.5065 0)
(121.505 95.1334 0)
(120.211 94.5039 0)
(121.485 95.1128 0)
(121.476 95.1027 0)
(121.436 95.0626 0)
(121.425 95.0528 0)
(122.027 96.2567 0)
(121.405 95.0334 0)
(122.023 96.2286 0)
(121.384 95.0142 0)
(122.01 96.1448 0)
(122.008 96.1309 0)
(121.32 94.9586 0)
(121.298 94.9406 0)
(122 96.0892 0)
(121.265 94.9143 0)
(121.994 96.0615 0)
(121.987 96.034 0)
(121.231 94.8887 0)
(121.981 96.0065 0)
(121.208 94.8721 0)
(121.973 95.9791 0)
(121.185 94.8557 0)
(121.97 95.9654 0)
(121.161 94.8397 0)
(121.95 95.8976 0)
(121.945 95.8841 0)
(121.937 95.8572 0)
(121.903 95.7641 0)
(120.98 94.7304 0)
(121.892 95.7379 0)
(120.955 94.7173 0)
(121.881 95.7118 0)
(121.87 95.6858 0)
(121.834 95.609 0)
(121.827 95.5963 0)
(120.774 94.6357 0)
(120.748 94.6255 0)
(120.721 94.6157 0)
(121.774 95.4967 0)
(120.708 94.611 0)
(121.759 95.4723 0)
(120.681 94.6017 0)
(121.745 95.4481 0)
(120.654 94.5929 0)
(120.641 94.5886 0)
(121.737 95.4361 0)
(121.73 95.4241 0)
(120.614 94.5803 0)
(121.714 95.4003 0)
(120.586 94.5724 0)
(120.573 94.5686 0)
(121.699 95.3768 0)
(121.658 95.3189 0)
(121.65 95.3074 0)
(100.349 143.893 0)
(100.349 143.893 14)
(80.4427 31.3012 54)
(86.02 31.3012 54)
(86.02 45.1807 54)
(80.4427 45.1807 54)
(17.0774 105.184 30)
(9.80747 105.184 30)
(17.0774 118.441 30)
(9.80747 118.441 30)
(61.7008 54.5631 56.7268)
(61.7022 54.5631 56.7835)
(61.7831 54.5631 57.7139)
(61.7915 54.5631 57.7699)
(61.867 54.5631 58.1879)
(61.8788 54.5631 58.2433)
(63.5848 73.0942 61.716)
(63.5484 73.0942 61.6726)
(63.3367 73.0942 61.4068)
(63.3025 73.0942 61.3616)
(62.9029 73.0942 60.7775)
(62.8732 73.0942 60.7293)
(61.8003 73.0942 57.8259)
(61.7915 73.0942 57.7699)
(61.7831 73.0942 57.7139)
(62.648 73.0942 60.3362)
(62.6214 73.0942 60.2862)
(62.5952 73.0942 60.236)
(61.7171 73.0942 57.0946)
(61.7135 73.0942 57.0381)
(62.364 73.0942 59.7503)
(61.704 73.0942 56.8401)
(59.1942 87.0554 40)
(59.1942 92.1761 40)
(58.6855 99.7416 40)
(58.7029 99.7316 40)
(58.5488 79.9768 40)
(58.5676 79.9842 40)
(58.2948 99.8656 40)
(58.2747 99.8674 40)
(59.1602 80.653 40)
(59.1652 80.6725 40)
(59.1829 80.7614 40)
(59.1857 80.7813 40)
(58.3447 79.9232 40)
(58.3248 79.9204 40)
(58.2948 79.9169 40)
(58.2747 79.9151 40)
(58.2647 79.9143 40)
(58.2446 79.9131 40)
(58.5582 99.802 40)
(58.5394 99.8092 40)
(59.1857 80.7813 0)
(59.1829 80.7614 0)
(59.1652 80.6725 0)
(59.1602 80.653 0)
(58.3447 79.9232 0)
(58.3248 79.9204 0)
(58.2948 79.9169 0)
(58.2747 79.9151 0)
(58.2647 79.9143 0)
(58.2446 79.9131 0)
(59.1942 87.0554 0)
(59.1942 92.1761 0)
(58.2747 99.8674 0)
(58.2948 99.8656 0)
(58.4821 99.8283 0)
(58.5394 99.8092 0)
(58.5582 99.802 0)
(59.1892 98.9711 0)
(59.191 98.9511 0)
(58.6855 99.7416 0)
(58.7029 99.7316 0)
(58.9688 99.5031 0)
(103.709 61.3713 9)