/*--------------------------------*- C++ -*----------------------------------*\
  =========                 |
  \\      /  F ield         | OpenFOAM: The Open Source CFD Toolbox
   \\    /   O peration     | Website:  https://openfoam.org
    \\  /    A nd           | Version:  12
     \\/     M anipulation  |
\*---------------------------------------------------------------------------*/
FoamFile
{
    format      binary;
    class       polyBoundaryMesh;
    location    "constant/polyMesh";
    object      boundary;
}
// * * * * * * * * * * * * * * * * * * * * * * * * * * * * * * * * * * * * * //

5
(
    bottomoutlet
    {
        type            patch;
        nFaces          1920;
        startFace       1670260;
    }
    negyinlet
    {
        type            patch;
        nFaces          60;
        startFace       1672180;
    }
    posyinlet
    {
        type            patch;
        nFaces          60;
        startFace       1672240;
    }
    topoutlet
    {
        type            patch;
        nFaces          896;
        startFace       1672300;
    }
    wall
    {
        type            wall;
        inGroups        List<word> 1(wall);
        nFaces          22928;
        startFace       1673196;
    }
)

// ************************************************************************* //
